Version 4.1
SHEET 1 880 680
WIRE 432 -128 224 -128
WIRE 640 -128 432 -128
WIRE 224 -16 224 -128
WIRE 224 0 224 -16
WIRE 640 144 640 -128
WIRE 224 160 224 48
WIRE 288 160 224 160
WIRE 384 160 352 160
WIRE 432 160 432 -128
WIRE 224 176 224 160
WIRE 224 288 224 256
WIRE 432 288 432 224
WIRE 432 288 224 288
WIRE 432 368 432 288
WIRE 432 560 432 448
WIRE 544 560 432 560
WIRE 640 560 640 224
WIRE 640 560 544 560
WIRE 544 608 544 560
FLAG 544 608 0
SYMBOL voltage 640 128 R0
SYMATTR InstName V1
SYMATTR Value SINE(0 100 50)
SYMBOL cap 208 -16 R0
SYMATTR InstName C1
SYMATTR Value 45n
SYMBOL res 208 160 R0
SYMATTR InstName R1
SYMATTR Value {R2}
SYMBOL res 416 352 R0
SYMATTR InstName R2
SYMATTR Value 100
SYMBOL Misc\\TRIAC 400 224 M180
SYMATTR InstName U2
SYMATTR Value BTA12-600B
SYMBOL Misc\\DIAC 288 192 R270
WINDOW 0 64 32 VTop 2
WINDOW 3 -22 31 VTop 2
SYMATTR InstName U1
SYMATTR Value DB3
TEXT -320 392 Left 2 !.inc st_diacs.lib \n.inc st_standard_snubberless_triacs.lib\n.tran 0.03\n.param R2=200k
